src/test/resources/pst_special/process3/20260620_1130_2D1_SI0.UCT
##C 2007.05.01
##N
##ZSI
LBERIC1  BERICEVO     0 0            7.6     0.6     6.5     8.1     5.3     2.1     7.0     6.7   7.3     0.7     4.4          
LDIVAC11 DIVACA       0 0            4.1     2.5     1.4     6.9     3.4     6.0     3.8     1.0   5.8     0.2     0.1          
LDIVAC12 LDIVAC12     0 0            5.5     2.7     3.7     9.5     2.2     3.4     7.2     0.2   5.6     7.3     5.9          
LDIVAC51 LDIVAC51     0 0          601.5     5.3     9.3     9.0     5.9     1.6     2.0     6.7   8.8     4.5     4.2         
##ZXX
XRE_DI11 REDIPUGLIA   0 2  021.5     7.7   -23.4     4.2     4.1     9.8     2.7   367.1  -137.8   4.0     8.7     2.5         
XME_DI11 MELINA       0 2  072.0    65.4   -59.9     5.7     5.2     2.5     0.0     1.3     9.6   2.2     7.6     2.1         
##L
LDIVAC12 XRE_DI11 1 0  3.163  7.220   02.376   2700 XXXXXXXXXX 1
LDIVAC11 XME_DI11 1 0   0.43 71.305   895.76   1920 XXXXXXXXXX 1
LDIVAC11 LBERIC1  1 0  6.469 61.892   418.35   1920 XXXXXXXXXX 1
LDIVAC12 LDIVAC11 2 7   8.38   9.29      9.4   9999 XXXXXXXXXX 1
##T
LDIVAC11 LDIVAC12 1 8 163.3 805.1  1200   6.74 90.198   -8.897  1.140   1732 XXXXXX XXXXX
LDIVAC51 LDIVAC11 1 0 049.5 537.8   300 0.4321  8.746 -816.795 99.778   1506 XXXXXX XXXXX
##R
LDIVAC11 LDIVAC12 1     0  0   0     0  6.24    90 32   0     1 SYMM
LDIVAC51 LDIVAC11 1   6.9 12  -1     0                          
